LTspice 24.1.6 for Windows
Circuit: C:\Users\Luka\Documents\GitHub\Electronics\BSPD\SIMS\BSPD\BSPD_Sim.net
Start Time: Sun Aug 24 10:51:22 2025
solver = Normal
Maximum thread count: 16
tnom = 27
temp = 27
method = trap
Direct Newton iteration for .op point succeeded.
Total elapsed time: 0.443 seconds.

Files loaded:
C:\Users\Luka\Documents\GitHub\Electronics\BSPD\SIMS\BSPD\BSPD_Sim.net
C:\Users\Luka\AppData\Local\LTspice\lib\cmp\standard.mos
C:\Users\Luka\AppData\Local\LTspice\lib\sub\LTC.lib
C:\Users\Luka\AppData\Local\LTspice\lib\sub\NE555.sub

