LTspice 24.1.6 for Windows
Circuit: C:\Users\Luka\Documents\GitHub\Electronics\Charging_PCB\Charging_26\Ltspice_Learning\Ltspice_BasicVoltageDivider.net
Start Time: Sun Aug 24 11:13:38 2025
solver = Normal
Maximum thread count: 16
tnom = 27
temp = 27
method = trap
.OP point found by inspection.
Total elapsed time: 0.124 seconds.

Files loaded:
C:\Users\Luka\Documents\GitHub\Electronics\Charging_PCB\Charging_26\Ltspice_Learning\Ltspice_BasicVoltageDivider.net

